&fms_nml 
print_memory_usage = .false., 
domains_stack_size = 20000000/

&fv_core_nml
do_schmidt = .true.,
stretch_fac = 15.0,
target_lat = 33.7,
target_lon = 275.6
/
